FoamFile
{
    version         2;
    format          ascii;
    class           dictionary;
    object          turbulenceProperties;
}

simulationType  RAS;

RAS
{
    RASModel        kOmegaSST;
    turbulence      on;
    printCoeffs     on;
}
FoamFile
{
    version         2;
    format          ascii;
    class           dictionary;
    object          transportProperties;
}

transportModel  Newtonian;

nu              [ 0 2 -1 0 0 0 0 ] 1.5e-05;
