FoamFile
{
    version         2;
    format          ascii;
    class           dictionary;
    object          turbulenceProperties;
}

simulationType  RAS;
RAS
{
    RASModel        kOmegaSST;

  kOmegaSSTCoeffs
  {
      Cmu         0.221;
      CmuKEps     0.091;
      C1          1.41;
      C2          0.31;
      CL          0.231;
      Ceta        701;
      //Ceps2       1.91;

      sigmaEps    //1.31;
      sigmaK      1.1;
  }
    turbulence      on;
    printCoeffs     on;
}

FoamFile
{
    version         2;
    format          ascii;
    class           dictionary;
    object          transportProperties;
}

transportModel  Newtonian;

nu              [ 0 2 -1 0 0 0 0 ] 1.5e-05;
